 &coupler_nml
    months = 12,
    days   = 0,
    current_date = 1,1,1,0,0,0,
    calendar = 'noleap',
    dt_cpld = 1800,
    dt_atmos = 1800,
    do_atmos = .false.,
    do_land = .false.,   
    do_ice = .true.,
    do_ocean = .true.,
    use_lag_fluxes=.true.
/
